
* Disclaimer:
* THIS FILE IS PROVIDED AS IS AND WITH:
* (A)  NO WARRANTY OF ANY KIND, express, implied or statutory, including any implied warranties of merchantability, fitness for a particular purpose and noninfringement, which Infineon disclaims to the maximum extent permitted by applicable law; and
* (B)  NO INDEMNIFICATION FOR INFRINGEMENT OF INTELLECTUAL PROPERTY RIGHTS.
* LIMITATION OF LIABILITY:  IN NO EVENT SHALL INFINEON BE LIABLE FOR ANY DIRECT, INDIRECT, SPECIAL, INCIDENTAL, OR CONSEQUENTIAL DAMAGES (INCLUDING LOST PROFITS OR SAVINGS) WHATSOEVER, WHETHER BASED ON CONTRACT, TORT OR 
* ANY OTHER LEGAL THEORY, EVEN IF ADVISED OF THE POSSIBILITY OF SUCH DAMAGES.
* © 2020 Infineon Technologies AG. All rights reserved

* Release:
* version 1.1


.GLOBAL VDDa! VSS! VDDba! VDDc! VSSb! VDDbc!


.SUBCKT supplies inh_bulkn inh_bulkpanalog inh_bulkpcore inh_hsupanalog inh_hsupcore inh_lSup
  V0 net7 inh_lSup DC='vsup2v5' PULSE( '0' 'vsup2v5' 'td_ps' 'tr_ps' '1m' '9' '10' ) 
  V1 net8 inh_lSup DC='vsup1v5' PULSE( '0' 'vsup1v5' 'td_ps' 'tr_ps' '1m' '9' '10' ) 
  R5 0 inh_lSup R='1m'
  R4 inh_hsupcore net8 R='rhsupcore'
  R3 inh_hsupanalog net7 R='rhsupanalog'
  R2 inh_hsupanalog inh_bulkpanalog R='rbulkpanalog'
  R1 inh_hsupcore inh_bulkpcore R='rbulkpcore'
  R0 inh_lSup inh_bulkn R='1m'
.ENDS


.SUBCKT bandgap bg_out disable inh_bulkn inh_bulkpanalog inh_hsupanalog inh_lSup
  M91 inh_lSup net0140 inh_lSup inh_bulkn NANA W='7.5u' L='7.5u' M='1'
  M78 inh_lSup inh_lSup inh_hsupanalog inh_bulkn NANA W='400n' L='400n' M='1'
  M77 inh_lSup inh_lSup bg_out inh_bulkn NANA W='400n' L='400n' M='1'
  M74 net016 net011 inh_lSup inh_bulkn NANA W='400n' L='400n' M='1'
  M73 net074 net064 net019 inh_bulkn NANA W='400n' L='400n' M='1'
  M62 bg_out net011 inh_lSup inh_bulkn NANA W='400n' L='400n' M='1'
  M65 net013 net011 inh_lSup inh_bulkn NANA W='400n' L='400n' M='1'
  M68 net013 net064 net070 inh_bulkn NANA W='400n' L='400n' M='1'
  M69 net0140 net016 inh_lSup inh_bulkn NANA W='400n' L='2.4u' M='4'
  M72 net016 net064 net0127 inh_bulkn NANA W='400n' L='400n' M='1'
  M47 net019 net019 inh_lSup inh_bulkn NANA W='400n' L='400n' M='1'
  M45 net029 net019 net41 inh_bulkn NANA W='400n' L='400n' M='2'
  M61 net011 net064 inh_lSup inh_bulkn NANA W='400n' L='400n' M='1'
  M49 net070 net013 inh_lSup inh_bulkn NANA W='400n' L='2.4u' M='1'
  M48 net0127 net013 inh_lSup inh_bulkn NANA W='400n' L='2.4u' M='1'
  M55 net064 disable inh_lSup inh_bulkn NANA W='400n' L='400n' M='1'
  M70 net011 net064 inh_hsupanalog inh_bulkpanalog PANA W='1.2u' L='400n' M='1'
  M80 net030 net011 net078 inh_bulkpanalog PANA W='400n' L='400n' M='8'
  M60 net028 net077 net025 inh_bulkpanalog PANA W='400n' L='400n' M='1'
  M59 net029 net077 net030 inh_bulkpanalog PANA W='400n' L='400n' M='8'
  M85 net070 net012 net028 inh_bulkpanalog PANA W='400n' L='800n' M='4'
  M58 net0127 net0105 net028 inh_bulkpanalog PANA W='400n' L='800n' M='4'
  M90 net068 net064 inh_hsupanalog inh_bulkpanalog PANA W='400n' L='400n' M='8'
  M75 net077 net064 inh_hsupanalog inh_bulkpanalog PANA W='400n' L='400n' M='8'
  M89 net068 net077 net042 inh_bulkpanalog PANA W='400n' L='400n' M='2'
  M79 net029 net011 net077 inh_bulkpanalog PANA W='400n' L='400n' M='8'
  M84 net078 net064 inh_hsupanalog inh_bulkpanalog PANA W='400n' L='400n' M='8'
  M51 net39 net39 inh_hsupanalog inh_bulkpanalog PANA W='400n' L='1.2u' M='1'
  M81 net076 net076 net39 inh_bulkpanalog PANA W='400n' L='1.2u' M='1'
  M82 net074 net074 net076 inh_bulkpanalog PANA W='400n' L='1.2u' M='1'
  M50 net074 net078 inh_hsupanalog inh_bulkpanalog PANA W='400n' L='400n' M='1'
  M27 net030 net078 inh_hsupanalog inh_bulkpanalog PANA W='400n' L='400n' M='1'
  M71 bg_out net011 net053 inh_bulkpanalog PANA W='400n' L='400n' M='8'
  M56 net025 net078 inh_hsupanalog inh_bulkpanalog PANA W='400n' L='400n' M='1'
  M88 net042 net078 inh_hsupanalog inh_bulkpanalog PANA W='400n' L='400n' M='2'
  M63 net053 net068 inh_hsupanalog inh_bulkpanalog PANA W='400n' L='400n' M='8'
  M86 net039 net068 inh_hsupanalog inh_bulkpanalog PANA W='400n' L='400n' M='4'
  M87 net040 net068 inh_hsupanalog inh_bulkpanalog PANA W='400n' L='400n' M='4'
  M76 net0140 net011 net068 inh_bulkpanalog PANA W='400n' L='400n' M='8'
  M83 net064 disable inh_hsupanalog inh_bulkpanalog PANA W='1.2u' L='400n' M='1'
  R248 net050 net0102 R='10K'
  R247 net0102 net0105 R='10K'
  R246 net0102 net038 R='10K'
  R233 net038 net0105 R='10K'
  R245 net0100 net0101 R='10K'
  R244 net0101 net051 R='10K'
  R243 net051 net038 R='10K'
  R242 net0100 net055 R='10K'
  R241 net055 net054 R='10K'
  R278 net053 net0132 R='10K'
  R249 net050 net099 R='10K'
  R277 net0120 net0126 R='10K'
  R276 net0136 net0120 R='10K'
  R275 net0136 net0117 R='10K'
  R263 net0133 net0135 R='10K'
  R262 net0114 net0131 R='10K'
  R261 net0121 net0134 R='10K'
  R260 net0122 net062 R='10K'
  R250 net099 net049 R='10K'
  R255 net053 net045 R='10K'
  R240 net054 net056 R='10K'
  R239 net059 net058 R='10K'
  R254 net046 net047 R='10K'
  R253 net045 net046 R='10K'
  R274 net0126 net0137 R='10K'
  R273 net0132 net0123 R='10K'
  R259 net0129 net0133 R='10K'
  R258 net0128 net0114 R='10K'
  R272 net0117 net041 R='10K'
  R271 net0117 net012 R='10K'
  R270 net0137 net0125 R='10K'
  R269 net0123 net0125 R='10K'
  R268 net041 net012 R='10K'
  R267 net0118 net0129 R='10K'
  R266 net0131 net0135 R='10K'
  R265 net0134 net041 R='10K'
  R238 net058 net057 R='10K'
  R237 net057 net056 R='10K'
  R252 net048 net047 R='10K'
  R251 net049 net048 R='10K'
  R236 net061 net0105 R='10K'
  R11 net41 inh_lSup R='50K'
  R235 net060 net061 R='10K'
  R257 net0128 net0121 R='10K'
  R264 net062 net012 R='10K'
  R0 net0105 net052 R='10K'
  R256 net0118 net0122 R='10K'
  R234 net059 net060 R='10K'
  C2 net0140 net0127 C='7.5f'
  C3 net0140 net0127 C='7.5f'
  Q1 inh_lSup inh_lSup net012 inh_bulkn LATPNP
  Q0 inh_lSup inh_lSup net052 inh_bulkn LATPNP M='8'
  Q3 inh_lSup net012 net039 inh_bulkn LATPNP
  Q2 inh_lSup net052 net040 inh_bulkn LATPNP M='8'
.ENDS


.SUBCKT bg_precond disable refin refout inh_bulkn inh_bulkpanalog inh_hsupanalog inh_lSup
  M73 net22 net20 net21 inh_bulkn NANA W='400n' L='400n' M='1'
  M47 net21 net21 inh_lSup inh_bulkn NANA W='400n' L='400n' M='1'
  M65 net017 net07 inh_lSup inh_bulkn NANA W='400n' L='400n' M='1'
  M78 inh_lSup inh_lSup inh_hsupanalog inh_bulkn NANA W='400n' L='400n' M='1'
  M7 net075 net16 net077 inh_bulkn NANA W='400n' L='800n' M='20'
  M4 refout net07 inh_lSup inh_bulkn NANA W='400n' L='400n' M='1'
  M8 net16 net07 inh_lSup inh_bulkn NANA W='400n' L='400n' M='1'
  M77 inh_lSup inh_lSup refout inh_bulkn NANA W='400n' L='400n' M='1'
  M61 net07 net20 inh_lSup inh_bulkn NANA W='400n' L='400n' M='1'
  M55 net20 disable inh_lSup inh_bulkn NANA W='400n' L='400n' M='1'
  M68 net074 net20 net017 inh_bulkn NANA W='400n' L='400n' M='1'
  M72 net15 net20 net070 inh_bulkn NANA W='400n' L='400n' M='1'
  M49 net070 net017 inh_lSup inh_bulkn NANA W='400n' L='2.4u' M='1'
  M45 net28 net21 net54 inh_bulkn NANA W='400n' L='400n' M='2'
  M48 net074 net017 inh_lSup inh_bulkn NANA W='400n' L='2.4u' M='1'
  M69 net16 net15 inh_lSup inh_bulkn NANA W='400n' L='2.4u' M='10'
  M74 net15 net07 inh_lSup inh_bulkn NANA W='400n' L='400n' M='1'
  C1 net16 net070 C='5f'
  C2 net16 net070 C='5f'
  R0 refout inh_lSup R='120K'
  R2 refin net08 R='1K'
  R4 inh_hsupanalog net075 R='400K'
  R1 net077 refout R='20K'
  R11 net54 inh_lSup R='50K'
  M85 net070 net08 net13 inh_bulkpanalog PANA W='400n' L='1.2u' M='4'
  M75 net18 net20 inh_hsupanalog inh_bulkpanalog PANA W='400n' L='400n' M='8'
  M60 net13 net18 net38 inh_bulkpanalog PANA W='400n' L='400n' M='1'
  M84 net19 net20 inh_hsupanalog inh_bulkpanalog PANA W='400n' L='400n' M='8'
  M89 net048 net18 net051 inh_bulkpanalog PANA W='400n' L='400n' M='5'
  M0 net026 net026 net25 inh_bulkpanalog PANA W='400n' L='1.2u' M='1'
  M76 net16 net07 net048 inh_bulkpanalog PANA W='400n' L='400n' M='8'
  M27 net29 net19 inh_hsupanalog inh_bulkpanalog PANA W='400n' L='400n' M='2'
  M56 net38 net19 inh_hsupanalog inh_bulkpanalog PANA W='400n' L='400n' M='2'
  M79 net28 net07 net18 inh_bulkpanalog PANA W='400n' L='400n' M='8'
  M5 net077 net075 inh_hsupanalog inh_bulkpanalog PANA W='400n' L='400n' M='5'
  M59 net28 net18 net29 inh_bulkpanalog PANA W='400n' L='400n' M='8'
  M88 net051 net19 inh_hsupanalog inh_bulkpanalog PANA W='400n' L='400n' M='10'
  M50 net22 net19 inh_hsupanalog inh_bulkpanalog PANA W='400n' L='400n' M='2'
  M51 net25 net25 inh_hsupanalog inh_bulkpanalog PANA W='400n' L='1.2u' M='1'
  M70 net07 net20 inh_hsupanalog inh_bulkpanalog PANA W='1.2u' L='400n' M='1'
  M83 net20 disable inh_hsupanalog inh_bulkpanalog PANA W='1.2u' L='400n' M='1'
  M58 net074 net077 net13 inh_bulkpanalog PANA W='400n' L='1.2u' M='4'
  M80 net29 net07 net19 inh_bulkpanalog PANA W='400n' L='400n' M='8'
  M1 net22 net22 net026 inh_bulkpanalog PANA W='400n' L='1.2u' M='1'
.ENDS


.SUBCKT saradc_11b_dig_top clk_i res_n_i chnr_i<4> chnr_i<3> chnr_i<2> chnr_i<1> chnr_i<0> comp_en_i comp_val_i<12> comp_val_i<11> comp_val_i<10> comp_val_i<9> comp_val_i<8> comp_val_i<7> comp_val_i<6> comp_val_i<5> comp_val_i<4> comp_val_i<3> comp_val_i<2>
+ comp_val_i<1> comp_val_i<0> dither_cfg_i<1> dither_cfg_i<0> dscal_i epcal_i lv_gain_i mod_enable_i mod_lowsup_i overs_cfg_i<1> overs_cfg_i<0> sesp_i start_adc_i stc_i<1> stc_i<0> stc_cal_i<1> stc_cal_i<0> track_cfg_i<1> track_cfg_i<0> tst_stress_i busy_o
+ eoc_pre_o eoc_o mod_ready_o result_o<11> result_o<10> result_o<9> result_o<8> result_o<7> result_o<6> result_o<5> result_o<4> result_o<3> result_o<2> result_o<1> result_o<0> tst_dig_o<19> tst_dig_o<18> tst_dig_o<17> tst_dig_o<16> tst_dig_o<15> tst_dig_o<14>
+ tst_dig_o<13> tst_dig_o<12> tst_dig_o<11> tst_dig_o<10> tst_dig_o<9> tst_dig_o<8> tst_dig_o<7> tst_dig_o<6> tst_dig_o<5> tst_dig_o<4> tst_dig_o<3> tst_dig_o<2> tst_dig_o<1> tst_dig_o<0> comp_i sar_i<12> sar_i<11> sar_i<10> sar_i<9> sar_i<8> sar_i<7> sar_i<6>
+ sar_i<5> sar_i<4> sar_i<3> sar_i<2> sar_i<1> sar_i<0> track_i<4> track_i<3> track_i<2> track_i<1> track_i<0> cal_o<5> cal_o<4> cal_o<3> cal_o<2> cal_o<1> cal_o<0> comp_res_o cp_clk_ldo_o din_n_o<13> din_n_o<12> din_n_o<11> din_n_o<10> din_n_o<9> din_n_o<8>
+ din_n_o<7> din_n_o<6> din_n_o<5> din_n_o<4> din_n_o<3> din_n_o<2> din_n_o<1> din_n_o<0> en_vain_lv_o enable_o lowsup_o ocs_o ref_o release_ldo_o sar_clk_o sar_res_o sample_ch_o<13> sample_ch_o<12> sample_ch_o<11> sample_ch_o<10> sample_ch_o<9> sample_ch_o<8>
+ sample_ch_o<7> sample_ch_o<6> sample_ch_o<5> sample_ch_o<4> sample_ch_o<3> sample_ch_o<2> sample_ch_o<1> sample_ch_o<0> scab_clk_o sesp_del_o<2> sesp_del_o<1> sesp_del_o<0> set_sar_o set_track_o track_res_o trackin_n_o<5> trackin_n_o<4> trackin_n_o<3>
+ trackin_n_o<2> trackin_n_o<1> trackin_n_o<0> jtag_mode_i scan_enable_i scan_in_i<3> scan_in_i<2> scan_in_i<1> scan_in_i<0> scan_out_o<3> scan_out_o<2> scan_out_o<1> scan_out_o<0> scan_mode_i tst_dig_i<36> tst_dig_i<35> tst_dig_i<34> tst_dig_i<33> tst_dig_i<32>
+ tst_dig_i<31> tst_dig_i<30> tst_dig_i<29> tst_dig_i<28> tst_dig_i<27> tst_dig_i<26> tst_dig_i<25> tst_dig_i<24> tst_dig_i<23> tst_dig_i<22> tst_dig_i<21> tst_dig_i<20> tst_dig_i<19> tst_dig_i<18> tst_dig_i<17> tst_dig_i<16> tst_dig_i<15> tst_dig_i<14>
+ tst_dig_i<13> tst_dig_i<12> tst_dig_i<11> tst_dig_i<10> tst_dig_i<9> tst_dig_i<8> tst_dig_i<7> tst_dig_i<6> tst_dig_i<5> tst_dig_i<4> tst_dig_i<3> tst_dig_i<2> tst_dig_i<1> tst_dig_i<0>
.ENDS


.SUBCKT sub_diode MINUS PLUS inh_bulk_n
  Q1 MINUS MINUS PLUS inh_bulk_n LATPNP
.ENDS


.SUBCKT TIEZERO Z inh_bulk_n inh_bulk_p inh_hSup inh_lSup
  Mptrans10 netcheck_mark netcheck_mark inh_hSup inh_bulk_p PREG W='860.0n' L='120.0n' M='1'
  Mntrans11 Z netcheck_mark inh_lSup inh_bulk_n NREG W='400n' L='120.0n' M='1'
  XINSTANCE1 inh_hSup inh_lSup inh_bulk_n sub_diode
.ENDS


.SUBCKT INV2 A Z inh_bulk_n inh_bulk_p inh_hSup inh_lSup
  Mptrans10 Z A inh_hSup inh_bulk_p PREG W='1.62u' L='120.0n' M='1'
  Mntrans11 Z A inh_lSup inh_bulk_n NREG W='1.12u' L='120.0n' M='1'
  XINSTANCE1 inh_hSup inh_lSup inh_bulk_n sub_diode
.ENDS


.SUBCKT adc_bg_buffer_scab disable_i enable_i ibp_10u_ai ocs_ref_i ref_i scab_clk_i vain_ai vain_sel_i vcomp_ai vout_ao vrefp_ai inh_bulk_n inh_bulk_p inh_bulkn inh_hSup inh_lSup
  R5 net010 ibp_10u_ai R='1K'
  R0 net040 vout_ao R='3.7K'
  M25 net033 net68 inh_lSup inh_bulk_n NREG W='680.0n' L='120n'
  M23 net011 net68 inh_lSup inh_bulk_n NREG W='680.0n' L='120n'
  M22 net036 net68 inh_lSup inh_bulk_n NREG W='680.0n' L='120n'
  M21 vb_n net68 inh_lSup inh_bulk_n NREG W='680.0n' L='120n'
  M19 net010 net27 vb_n inh_bulk_n NREG W='680.0n' L='120n'
  MN13 b vb_n inh_lSup inh_bulk_n NREG W='3u' L='2u'
  M20 ibp_10u_ai net27 net036 inh_bulk_n NREG W='680.0n' L='120n'
  M6 net021 vb_n inh_lSup inh_bulk_n NREG W='3u' L='2u' M='8'
  MN17 net010 net036 b inh_bulk_n NREG W='10u' L='500n'
  M77 inh_lSup inh_lSup vout_ao inh_bulk_n NANA W='400n' L='400n' M='1'
  M5 net028 net022 net011 inh_bulk_n NREG W='3u' L='300n' M='4'
  M29 b net68 inh_lSup inh_bulk_n NREG W='680.0n' L='400n'
  M7 net011 net036 net021 inh_bulk_n NREG W='10u' L='500n' M='8'
  M28 net022 net68 inh_lSup inh_bulk_n NREG W='680.0n' L='120n'
  M78 inh_lSup inh_lSup vcomp_ai inh_bulkn NANA W='400n' L='400n' M='1'
  M4 net019 vout_ao net011 inh_bulk_n NREG W='3u' L='300n' M='4'
  M18 vout_ao net036 net033 inh_bulk_n NREG W='10u' L='500n' M='20'
  M10 net033 vb_n inh_lSup inh_bulk_n NREG W='3u' L='2u' M='20'
  M26 vout_ao net68 inh_lSup inh_bulk_n NREG W='680.0n' L='120n'
  M24 net028 net27 vcomp_ai vcomp_ai PREG W='2u' L='300n' M='5'
  M27 net022 net68 vrefp_ai vcomp_ai PREG W='2u' L='300n' M='5'
  M11 vout_ao net028 vcomp_ai vcomp_ai PREG W='2u' L='300n' M='25'
  M3 net019 net019 vcomp_ai vcomp_ai PREG W='2u' L='300n' M='5'
  M9 net028 net019 vcomp_ai vcomp_ai PREG W='2u' L='300n' M='5'
  XI65 enable_i net68 inh_bulk_n inh_bulk_p inh_hSup inh_lSup INV2
  XI82 disable_i net27 inh_bulk_n inh_bulk_p inh_hSup inh_lSup INV2
  C0 net028 net040 C='37f'
  C1 net028 net040 C='37f'
.ENDS


.SUBCKT adc_res_filt vrefn1_ao vrefn2_ao vrefn_ai vrefp_ai vsense_grnd_ai inh_bulk_n inh_lSup
  R0 vsense_grnd_ai vrefn2_ao R='152'
  R1 vrefn_ai vrefn1_ao R='50'
  XD1 vrefp_ai inh_lSup inh_bulk_n sub_diode
.ENDS


.SUBCKT INV3 A Z inh_bulk_n inh_bulk_p inh_hSup inh_lSup
  Mptrans10 Z A inh_hSup inh_bulk_p PREG W='2.44u' L='120.0n' M='1'
  Mntrans11 Z A inh_lSup inh_bulk_n NREG W='1.7u' L='120.0n' M='1'
  XINSTANCE1 inh_hSup inh_lSup inh_bulk_n sub_diode
.ENDS


.SUBCKT adc_swtree_muxlog a ena_lv_n_i ena_lv_p_i nmosf nmosl pmosf pmosl vdd1v5_in inh_bulk_n inh_lSup
  MP21 pmosl z_int_n vdd1v5_in vdd1v5_in PREG W='680.0n' L='120.0n' M='1'
  MP20 pmosl ena_lv_p_i vdd1v5_in vdd1v5_in PREG W='480.0n' L='120.0n' M='1'
  MP19 nmosl pmosl vdd1v5_in vdd1v5_in PREG W='680.0n' L='120.0n' M='1'
  MP13 nmosf z_int_n vdd1v5_in vdd1v5_in PREG W='1.2u' L='120.0n' M='1'
  MP7 pmosf z_int_n vdd1v5_in vdd1v5_in PREG W='1.2u' L='120.0n' M='1'
  MP11 pmosf ena_lv_n_i vdd1v5_in vdd1v5_in PREG W='480.0n' L='120.0n' M='1'
  MP0 z_int_n a vdd1v5_in vdd1v5_in PREG W='1.38u' L='120.0n' M='1'
  XD0 vdd1v5_in inh_lSup inh_bulk_n sub_diode
  MN17 nmosl pmosl inh_lSup inh_lSup NREG W='680.0n' L='120.0n' M='1'
  MN19 pmosl ena_lv_p_i net043 inh_lSup NREG W='680.0n' L='120.0n' M='1'
  MN18 net043 z_int_n inh_lSup inh_lSup NREG W='680.0n' L='120.0n' M='1'
  MN10 nmosf z_int_n inh_lSup inh_lSup NREG W='680.0n' L='120.0n' M='1'
  MN9 pmosf ena_lv_n_i net035 inh_lSup NREG W='680.0n' L='120.0n' M='1'
  MN5 net035 z_int_n inh_lSup inh_lSup NREG W='680.0n' L='120.0n' M='1'
  MN0 z_int_n a inh_lSup inh_lSup NREG W='960.0n' L='120.0n' M='1'
.ENDS


.SUBCKT adc_swtree c0 c1 c2 c3 c4 c5 c6 c7 c8 c9 c10 c11 c12 enable_lv_i sar_n_i<12> sar_n_i<11> sar_n_i<10> sar_n_i<9> sar_n_i<8> sar_n_i<7> sar_n_i<6> sar_n_i<5> sar_n_i<4> sar_n_i<3> sar_n_i<2> sar_n_i<1> sar_n_i<0> vagnd_ai vain_lv_ai volt_cap vrefp_buf_ai
+ inh_bulk_n inh_bulk_p inh_lSup
  XD0 volt_cap inh_lSup inh_bulk_n sub_diode
  XI33 net048 net051 inh_bulk_n inh_bulk_p volt_cap inh_lSup INV3
  XI545 enable_lv_i net048 inh_bulk_n inh_bulk_p volt_cap inh_lSup INV3
  M66 net0189 net0161 vagnd_ai inh_lSup NREG W='680.0n' L='120.0n' M='1'
  M65 net0188 net0163 vagnd_ai inh_lSup NREG W='680.0n' L='120.0n' M='1'
  M64 net0228 net0165 vagnd_ai inh_lSup NREG W='680.0n' L='120.0n' M='1'
  M63 net0222 net0167 vagnd_ai inh_lSup NREG W='680.0n' L='120.0n' M='1'
  M62 net0185 net47 vagnd_ai inh_lSup NREG W='1u' L='120.0n' M='1'
  M61 net0221 net0152 vagnd_ai inh_lSup NREG W='680.0n' L='120.0n' M='1'
  M60 net0229 net0154 vagnd_ai inh_lSup NREG W='680.0n' L='120.0n' M='1'
  M59 net0193 net0156 vagnd_ai inh_lSup NREG W='680.0n' L='120.0n' M='1'
  M58 net0219 net0158 vagnd_ai inh_lSup NREG W='680.0n' L='120.0n' M='1'
  M57 net0191 net0160 vagnd_ai inh_lSup NREG W='680.0n' L='120.0n' M='1'
  M56 net0212 net0145 vagnd_ai inh_lSup NREG W='680.0n' L='120.0n' M='1'
  MN38 c0 net0145 net0212 inh_lSup NREG W='680.0n' L='120.0n' M='1'
  MN37 vain_lv_ai net0136 c0 inh_lSup NREG W='680.0n' L='120.0n' M='1'
  MN36 c1 net0147 net0230 inh_lSup NREG W='680.0n' L='120.0n' M='1'
  MN35 vain_lv_ai net0121 c1 inh_lSup NREG W='680.0n' L='120.0n' M='1'
  MN34 c2 net0149 net0217 inh_lSup NREG W='680.0n' L='120.0n' M='1'
  MN33 vain_lv_ai net0106 c2 inh_lSup NREG W='680.0n' L='120.0n' M='1'
  MN20 c8 net0161 net0189 inh_lSup NREG W='680.0n' L='120.0n' M='1'
  MN19 vain_lv_ai net0197 c8 inh_lSup NREG W='680.0n' L='120.0n' M='1'
  MN18 c9 net0163 net0188 inh_lSup NREG W='680.0n' L='120.0n' M='1'
  M55 net0230 net0147 vagnd_ai inh_lSup NREG W='680.0n' L='120.0n' M='1'
  MN12 vain_lv_ai net0108 c12 inh_lSup NREG W='1u' L='120.0n' M='1'
  MN23 c7 net0160 net0191 inh_lSup NREG W='680.0n' L='120.0n' M='1'
  MN24 vain_lv_ai net0107 c7 inh_lSup NREG W='680.0n' L='120.0n' M='1'
  MN25 c6 net0158 net0219 inh_lSup NREG W='680.0n' L='120.0n' M='1'
  MN26 vain_lv_ai net0122 c6 inh_lSup NREG W='680.0n' L='120.0n' M='1'
  MN27 c5 net0156 net0193 inh_lSup NREG W='680.0n' L='120.0n' M='1'
  MN28 vain_lv_ai net0137 c5 inh_lSup NREG W='680.0n' L='120.0n' M='1'
  MN29 c4 net0154 net0229 inh_lSup NREG W='680.0n' L='120.0n' M='1'
  MN31 c3 net0152 net0221 inh_lSup NREG W='680.0n' L='120.0n' M='1'
  MN30 vain_lv_ai net0195 c4 inh_lSup NREG W='680.0n' L='120.0n' M='1'
  MN32 vain_lv_ai net0190 c3 inh_lSup NREG W='680.0n' L='120.0n' M='1'
  MN14 c11 net0167 net0222 inh_lSup NREG W='680.0n' L='120.0n' M='1'
  MN13 vain_lv_ai net0123 c11 inh_lSup NREG W='680.0n' L='120.0n' M='1'
  MN15 vain_lv_ai net0138 c10 inh_lSup NREG W='680.0n' L='120.0n' M='1'
  MN16 c10 net0165 net0228 inh_lSup NREG W='680.0n' L='120.0n' M='1'
  MN17 vain_lv_ai net0187 c9 inh_lSup NREG W='680.0n' L='120.0n' M='1'
  M54 net0217 net0149 vagnd_ai inh_lSup NREG W='680.0n' L='120.0n' M='1'
  MN132 c12 net47 net0185 inh_lSup NREG W='1u' L='120.0n' M='1'
  MP39 c0 net0146 vrefp_buf_ai volt_cap PREG W='680.0n' L='120.0n' M='1'
  MP38 c0 net0133 vain_lv_ai volt_cap PREG W='680.0n' L='120.0n' M='1'
  MP37 c1 net0148 vrefp_buf_ai volt_cap PREG W='680.0n' L='120.0n' M='1'
  MP36 c1 net0118 vain_lv_ai volt_cap PREG W='680.0n' L='120.0n' M='1'
  MP33 c3 net0186 vain_lv_ai volt_cap PREG W='680.0n' L='120.0n' M='1'
  MP34 c2 net0103 vain_lv_ai volt_cap PREG W='680.0n' L='120.0n' M='1'
  MP35 c2 net0150 vrefp_buf_ai volt_cap PREG W='680.0n' L='120.0n' M='1'
  MP21 c8 net0162 vrefp_buf_ai volt_cap PREG W='680.0n' L='120.0n' M='1'
  MP20 c8 net0194 vain_lv_ai volt_cap PREG W='680.0n' L='120.0n' M='1'
  MP19 c9 net0164 vrefp_buf_ai volt_cap PREG W='680.0n' L='120.0n' M='1'
  MP24 c7 net0159 vrefp_buf_ai volt_cap PREG W='680.0n' L='120.0n' M='1'
  MP25 c7 net0104 vain_lv_ai volt_cap PREG W='680.0n' L='120.0n' M='1'
  MP26 c6 net0157 vrefp_buf_ai volt_cap PREG W='680.0n' L='120.0n' M='1'
  MP27 c6 net0119 vain_lv_ai volt_cap PREG W='680.0n' L='120.0n' M='1'
  MP29 c5 net0134 vain_lv_ai volt_cap PREG W='680.0n' L='120.0n' M='1'
  MP28 c5 net0155 vrefp_buf_ai volt_cap PREG W='680.0n' L='120.0n' M='1'
  MP30 c4 net0153 vrefp_buf_ai volt_cap PREG W='680.0n' L='120.0n' M='1'
  MP31 c4 net0196 vain_lv_ai volt_cap PREG W='680.0n' L='120.0n' M='1'
  MP32 c3 net0151 vrefp_buf_ai volt_cap PREG W='680.0n' L='120.0n' M='1'
  MP14 c11 net0120 vain_lv_ai volt_cap PREG W='1u' L='120.0n' M='1'
  MP16 c10 net0135 vain_lv_ai volt_cap PREG W='680.0n' L='120.0n' M='1'
  MP15 c11 net0168 vrefp_buf_ai volt_cap PREG W='1.2u' L='120.0n' M='1'
  MP17 c10 net0166 vrefp_buf_ai volt_cap PREG W='720.0n' L='120.0n' M='1'
  MP13 c12 net0105 vain_lv_ai volt_cap PREG W='2u' L='120.0n' M='1'
  MP6 c12 net0170 vrefp_buf_ai volt_cap PREG W='2u' L='120.0n' M='1'
  MP18 c9 net0192 vain_lv_ai volt_cap PREG W='680.0n' L='120.0n' M='1'
  XI30 sar_n_i<0> net048 net051 net0145 net0136 net0146 net0133 volt_cap inh_bulk_n inh_lSup adc_swtree_muxlog
  XI29 sar_n_i<1> net048 net051 net0147 net0121 net0148 net0118 volt_cap inh_bulk_n inh_lSup adc_swtree_muxlog
  XI28 sar_n_i<2> net048 net051 net0149 net0106 net0150 net0103 volt_cap inh_bulk_n inh_lSup adc_swtree_muxlog
  XI21 sar_n_i<8> net048 net051 net0161 net0197 net0162 net0194 volt_cap inh_bulk_n inh_lSup adc_swtree_muxlog
  XI20 sar_n_i<9> net048 net051 net0163 net0187 net0164 net0192 volt_cap inh_bulk_n inh_lSup adc_swtree_muxlog
  XI15 sar_n_i<12> net048 net051 net47 net0108 net0170 net0105 volt_cap inh_bulk_n inh_lSup adc_swtree_muxlog
  XI23 sar_n_i<7> net048 net051 net0160 net0107 net0159 net0104 volt_cap inh_bulk_n inh_lSup adc_swtree_muxlog
  XI24 sar_n_i<6> net048 net051 net0158 net0122 net0157 net0119 volt_cap inh_bulk_n inh_lSup adc_swtree_muxlog
  XI25 sar_n_i<5> net048 net051 net0156 net0137 net0155 net0134 volt_cap inh_bulk_n inh_lSup adc_swtree_muxlog
  XI26 sar_n_i<4> net048 net051 net0154 net0195 net0153 net0196 volt_cap inh_bulk_n inh_lSup adc_swtree_muxlog
  XI27 sar_n_i<3> net048 net051 net0152 net0190 net0151 net0186 volt_cap inh_bulk_n inh_lSup adc_swtree_muxlog
  XI18 sar_n_i<11> net048 net051 net0167 net0123 net0168 net0120 volt_cap inh_bulk_n inh_lSup adc_swtree_muxlog
  XI19 sar_n_i<10> net048 net051 net0165 net0138 net0166 net0135 volt_cap inh_bulk_n inh_lSup adc_swtree_muxlog
.ENDS


.SUBCKT adc_caparray_cal c0 c1 c2 c3 c4 c5 cxxx_n_o cxxx_p_o vagnd_ai
  C5 c0 cxxx_p_cal_s C='250e-18'
  C6 cxxx_n_o vagnd_ai C='5.3f'
  C7 cxxx_p_cal_s cxxx_p_o C='8f'
  C0 c5 cxxx_p_cal_s C='8f'
  C4 c1 cxxx_p_cal_s C='500e-18'
  C3 c2 cxxx_p_cal_s C='1f'
  C2 c3 cxxx_p_cal_s C='2f'
  C1 c4 cxxx_p_cal_s C='4f'
.ENDS


.SUBCKT adc_nwell_dio_sar_dac inh_bulk_n inh_hSup inh_lSup
  XD0 inh_hSup inh_lSup inh_bulk_n sub_diode
.ENDS


.SUBCKT adc_caparray c0 c1 c2 c3 c4 c5 c6 c7 c8 c9 c10 c11 c12 cxxx_n_o cxxx_p_o vagnd_ai
  C12<823> c12 cxxx_p_o C='250e-18'
  C12<822> c12 cxxx_p_o C='250e-18'
  C12<821> c12 cxxx_p_o C='250e-18'
  C12<820> c12 cxxx_p_o C='250e-18'
  C12<819> c12 cxxx_p_o C='250e-18'
  C12<818> c12 cxxx_p_o C='250e-18'
  C12<817> c12 cxxx_p_o C='250e-18'
  C12<816> c12 cxxx_p_o C='250e-18'
  C12<815> c12 cxxx_p_o C='250e-18'
  C12<814> c12 cxxx_p_o C='250e-18'
  C12<813> c12 cxxx_p_o C='250e-18'
  C12<812> c12 cxxx_p_o C='250e-18'
  C12<811> c12 cxxx_p_o C='250e-18'
  C12<810> c12 cxxx_p_o C='250e-18'
  C12<809> c12 cxxx_p_o C='250e-18'
  C12<808> c12 cxxx_p_o C='250e-18'
  C12<807> c12 cxxx_p_o C='250e-18'
  C12<806> c12 cxxx_p_o C='250e-18'
  C12<805> c12 cxxx_p_o C='250e-18'
  C12<804> c12 cxxx_p_o C='250e-18'
  C12<803> c12 cxxx_p_o C='250e-18'
  C12<802> c12 cxxx_p_o C='250e-18'
  C12<801> c12 cxxx_p_o C='250e-18'
  C12<800> c12 cxxx_p_o C='250e-18'
  C12<799> c12 cxxx_p_o C='250e-18'
  C12<798> c12 cxxx_p_o C='250e-18'
  C12<797> c12 cxxx_p_o C='250e-18'
  C12<796> c12 cxxx_p_o C='250e-18'
  C12<795> c12 cxxx_p_o C='250e-18'
  C12<794> c12 cxxx_p_o C='250e-18'
  C12<793> c12 cxxx_p_o C='250e-18'
  C12<792> c12 cxxx_p_o C='250e-18'
  C12<791> c12 cxxx_p_o C='250e-18'
  C12<790> c12 cxxx_p_o C='250e-18'
  C12<789> c12 cxxx_p_o C='250e-18'
  C12<788> c12 cxxx_p_o C='250e-18'
  C12<787> c12 cxxx_p_o C='250e-18'
  C12<786> c12 cxxx_p_o C='250e-18'
  C12<785> c12 cxxx_p_o C='250e-18'
  C12<784> c12 cxxx_p_o C='250e-18'
  C12<783> c12 cxxx_p_o C='250e-18'
  C12<782> c12 cxxx_p_o C='250e-18'
  C12<781> c12 cxxx_p_o C='250e-18'
  C12<780> c12 cxxx_p_o C='250e-18'
  C12<779> c12 cxxx_p_o C='250e-18'
  C12<778> c12 cxxx_p_o C='250e-18'
  C12<777> c12 cxxx_p_o C='250e-18'
  C12<776> c12 cxxx_p_o C='250e-18'
  C12<775> c12 cxxx_p_o C='250e-18'
  C12<774> c12 cxxx_p_o C='250e-18'
  C12<773> c12 cxxx_p_o C='250e-18'
  C12<772> c12 cxxx_p_o C='250e-18'
  C12<771> c12 cxxx_p_o C='250e-18'
  C12<770> c12 cxxx_p_o C='250e-18'
  C12<769> c12 cxxx_p_o C='250e-18'
  C12<768> c12 cxxx_p_o C='250e-18'
  C12<767> c12 cxxx_p_o C='250e-18'
  C12<766> c12 cxxx_p_o C='250e-18'
  C12<765> c12 cxxx_p_o C='250e-18'
  C12<764> c12 cxxx_p_o C='250e-18'
  C12<763> c12 cxxx_p_o C='250e-18'
  C12<762> c12 cxxx_p_o C='250e-18'
  C12<761> c12 cxxx_p_o C='250e-18'
  C12<760> c12 cxxx_p_o C='250e-18'
  C12<759> c12 cxxx_p_o C='250e-18'
  C12<758> c12 cxxx_p_o C='250e-18'
  C12<757> c12 cxxx_p_o C='250e-18'
  C12<756> c12 cxxx_p_o C='250e-18'
  C12<755> c12 cxxx_p_o C='250e-18'
  C12<754> c12 cxxx_p_o C='250e-18'
  C12<753> c12 cxxx_p_o C='250e-18'
  C12<752> c12 cxxx_p_o C='250e-18'
  C12<751> c12 cxxx_p_o C='250e-18'
  C12<750> c12 cxxx_p_o C='250e-18'
  C12<749> c12 cxxx_p_o C='250e-18'
  C12<748> c12 cxxx_p_o C='250e-18'
  C12<747> c12 cxxx_p_o C='250e-18'
  C12<746> c12 cxxx_p_o C='250e-18'
  C12<745> c12 cxxx_p_o C='250e-18'
  C12<744> c12 cxxx_p_o C='250e-18'
  C12<743> c12 cxxx_p_o C='250e-18'
  C12<742> c12 cxxx_p_o C='250e-18'
  C12<741> c12 cxxx_p_o C='250e-18'
  C12<740> c12 cxxx_p_o C='250e-18'
  C12<739> c12 cxxx_p_o C='250e-18'
  C12<738> c12 cxxx_p_o C='250e-18'
  C12<737> c12 cxxx_p_o C='250e-18'
  C12<736> c12 cxxx_p_o C='250e-18'
  C12<735> c12 cxxx_p_o C='250e-18'
  C12<734> c12 cxxx_p_o C='250e-18'
  C12<733> c12 cxxx_p_o C='250e-18'
  C12<732> c12 cxxx_p_o C='250e-18'
  C12<731> c12 cxxx_p_o C='250e-18'
  C12<730> c12 cxxx_p_o C='250e-18'
  C12<729> c12 cxxx_p_o C='250e-18'
  C12<728> c12 cxxx_p_o C='250e-18'
  C12<727> c12 cxxx_p_o C='250e-18'
  C12<726> c12 cxxx_p_o C='250e-18'
  C12<725> c12 cxxx_p_o C='250e-18'
  C12<724> c12 cxxx_p_o C='250e-18'
  C12<723> c12 cxxx_p_o C='250e-18'
  C12<722> c12 cxxx_p_o C='250e-18'
  C12<721> c12 cxxx_p_o C='250e-18'
  C12<720> c12 cxxx_p_o C='250e-18'
  C12<719> c12 cxxx_p_o C='250e-18'
  C12<718> c12 cxxx_p_o C='250e-18'
  C12<717> c12 cxxx_p_o C='250e-18'
  C12<716> c12 cxxx_p_o C='250e-18'
  C12<715> c12 cxxx_p_o C='250e-18'
  C12<714> c12 cxxx_p_o C='250e-18'
  C12<713> c12 cxxx_p_o C='250e-18'
  C12<712> c12 cxxx_p_o C='250e-18'
  C12<711> c12 cxxx_p_o C='250e-18'
  C12<710> c12 cxxx_p_o C='250e-18'
  C12<709> c12 cxxx_p_o C='250e-18'
  C12<708> c12 cxxx_p_o C='250e-18'
  C12<707> c12 cxxx_p_o C='250e-18'
  C12<706> c12 cxxx_p_o C='250e-18'
  C12<705> c12 cxxx_p_o C='250e-18'
  C12<704> c12 cxxx_p_o C='250e-18'
  C12<703> c12 cxxx_p_o C='250e-18'
  C12<702> c12 cxxx_p_o C='250e-18'
  C12<701> c12 cxxx_p_o C='250e-18'
  C12<700> c12 cxxx_p_o C='250e-18'
  C12<699> c12 cxxx_p_o C='250e-18'
  C12<698> c12 cxxx_p_o C='250e-18'
  C12<697> c12 cxxx_p_o C='250e-18'
  C12<696> c12 cxxx_p_o C='250e-18'
  C12<695> c12 cxxx_p_o C='250e-18'
  C12<694> c12 cxxx_p_o C='250e-18'
  C12<693> c12 cxxx_p_o C='250e-18'
  C12<692> c12 cxxx_p_o C='250e-18'
  C12<691> c12 cxxx_p_o C='250e-18'
  C12<690> c12 cxxx_p_o C='250e-18'
  C12<689> c12 cxxx_p_o C='250e-18'
  C12<688> c12 cxxx_p_o C='250e-18'
  C12<687> c12 cxxx_p_o C='250e-18'
  C12<686> c12 cxxx_p_o C='250e-18'
  C12<685> c12 cxxx_p_o C='250e-18'
  C12<684> c12 cxxx_p_o C='250e-18'
  C12<683> c12 cxxx_p_o C='250e-18'
  C12<682> c12 cxxx_p_o C='250e-18'
  C12<681> c12 cxxx_p_o C='250e-18'
  C12<680> c12 cxxx_p_o C='250e-18'
  C12<679> c12 cxxx_p_o C='250e-18'
  C12<678> c12 cxxx_p_o C='250e-18'
  C12<677> c12 cxxx_p_o C='250e-18'
  C12<676> c12 cxxx_p_o C='250e-18'
  C12<675> c12 cxxx_p_o C='250e-18'
  C12<674> c12 cxxx_p_o C='250e-18'
  C12<673> c12 cxxx_p_o C='250e-18'
  C12<672> c12 cxxx_p_o C='250e-18'
  C12<671> c12 cxxx_p_o C='250e-18'
  C12<670> c12 cxxx_p_o C='250e-18'
  C12<669> c12 cxxx_p_o C='250e-18'
  C12<668> c12 cxxx_p_o C='250e-18'
  C12<667> c12 cxxx_p_o C='250e-18'
  C12<666> c12 cxxx_p_o C='250e-18'
  C12<665> c12 cxxx_p_o C='250e-18'
  C12<664> c12 cxxx_p_o C='250e-18'
  C12<663> c12 cxxx_p_o C='250e-18'
  C12<662> c12 cxxx_p_o C='250e-18'
  C12<661> c12 cxxx_p_o C='250e-18'
  C12<660> c12 cxxx_p_o C='250e-18'
  C12<659> c12 cxxx_p_o C='250e-18'
  C12<658> c12 cxxx_p_o C='250e-18'
  C12<657> c12 cxxx_p_o C='250e-18'
  C12<656> c12 cxxx_p_o C='250e-18'
  C12<655> c12 cxxx_p_o C='250e-18'
  C12<654> c12 cxxx_p_o C='250e-18'
  C12<653> c12 cxxx_p_o C='250e-18'
  C12<652> c12 cxxx_p_o C='250e-18'
  C12<651> c12 cxxx_p_o C='250e-18'
  C12<650> c12 cxxx_p_o C='250e-18'
  C12<649> c12 cxxx_p_o C='250e-18'
  C12<648> c12 cxxx_p_o C='250e-18'
  C12<647> c12 cxxx_p_o C='250e-18'
  C12<646> c12 cxxx_p_o C='250e-18'
  C12<645> c12 cxxx_p_o C='250e-18'
  C12<644> c12 cxxx_p_o C='250e-18'
  C12<643> c12 cxxx_p_o C='250e-18'
  C12<642> c12 cxxx_p_o C='250e-18'
  C12<641> c12 cxxx_p_o C='250e-18'
  C12<640> c12 cxxx_p_o C='250e-18'
  C12<639> c12 cxxx_p_o C='250e-18'
  C12<638> c12 cxxx_p_o C='250e-18'
  C12<637> c12 cxxx_p_o C='250e-18'
  C12<636> c12 cxxx_p_o C='250e-18'
  C12<635> c12 cxxx_p_o C='250e-18'
  C12<634> c12 cxxx_p_o C='250e-18'
  C12<633> c12 cxxx_p_o C='250e-18'
  C12<632> c12 cxxx_p_o C='250e-18'
  C12<631> c12 cxxx_p_o C='250e-18'
  C12<630> c12 cxxx_p_o C='250e-18'
  C12<629> c12 cxxx_p_o C='250e-18'
  C12<628> c12 cxxx_p_o C='250e-18'
  C12<627> c12 cxxx_p_o C='250e-18'
  C12<626> c12 cxxx_p_o C='250e-18'
  C12<625> c12 cxxx_p_o C='250e-18'
  C12<624> c12 cxxx_p_o C='250e-18'
  C12<623> c12 cxxx_p_o C='250e-18'