** Disclaimer:
** THIS FILE IS PROVIDED AS IS AND WITH:
** (A) NO WARRANTY OF ANY KIND, express, implied or statutory, including any implied warranties of merchantability, fitness for a particular purpose and noninfringement, which  Infineon disclaims to the maximum extent permitted by applicable law; and
** (B) NO INDEMNIFICATION FOR INFRINGEMENT OF INTELLECTUAL PROPERTY RIGHTS.
** (C) LIMITATION OF LIABILITY: IN NO EVENT SHALL INFINEON BE LIABLE FOR ANY DIRECT, INDIRECT, SPECIAL, INCIDENTAL, OR CONSEQUENTIAL DAMAGES (INCLUDING LOST PROFITS OR SAVINGS) WHATSOEVER, WHETHER BASED ON CONTRACT, TORT OR ANY OTHER LEGAL THEORY, EVEN IF ADVISED OF THE POSSIBILITY OF SUCH DAMAGES.
** © 2020 Infineon Technologies AG. All rights reserved.

** Note:
** The CMOS transistor models used, were freely available models downloaded from: http://ptm.asu.edu.
** The bipolar transistor models are from: The Development of Bipolar Log-Domain Filters in a Standard CMOS Process, G. D. Duerden, G. W. Roberts, M. J. Deen, 2001

** Release:
** version 1.0


.GLOBAL VSS! VDDc! VDDba! VSSb! VDDa! VDDbc!

** Subcircuit
** ----------
** Library name: phy_local
** Cell name: va_relay
** View name: schematic
** Inherited view list: veriloga ahdl spectre schematic av_analog_extracted av_extracted netlist
**
.SUBCKT va_relay A Z en_i inh_lSup
  GW0 A Z VCR PWL(1) en_i inh_lSup ('700m' '1.0G' '800.0m' '100.0m')
.ENDS
** End of subcircuit definition.

** Subcircuit
** ----------
** Library name: phy_local
** Cell name: lane_output
** View name: schematic
** Inherited view list: veriloga ahdl spectre schematic av_analog_extracted av_extracted netlist
**
.SUBCKT lane_output bin_o diff_o S0_i cn_i cp_i bin_no inh_lSup
  E0 diff_o inh_lSup cp_i cn_i '1.0'
  R2 cp_i net34 R='50'
  R25 cn_i net059 R='50'
  XI16 bin_o bin_no diff_o va_comparator hysteresis='0.025' trf='3e-11' del='0' vhigh='1.5'
  XI14 net059 net039 S0_i inh_lSup va_relay
  XI8 net34 net039 S0_i inh_lSup va_relay
  C0 net039 inh_lSup C='14p'
.ENDS
** End of subcircuit definition.

** Subcircuit
** ----------
** Library name: bandgap_testbench
** Cell name: bandgap
** View name: schematic
** Inherited view list: veriloga ahdl spectre schematic av_analog_extracted av_extracted netlist
**
.SUBCKT bandgap bg_out disable inh_bulkn inh_bulkpanalog inh_hsupanalog inh_lSup
  M78 inh_lSup inh_lSup inh_hsupanalog inh_bulkn NANA W='400n' L='400n' M='1'
  M77 inh_lSup inh_lSup bg_out inh_bulkn NANA W='400n' L='400n' M='1'
  M74 net016 net011 inh_lSup inh_bulkn NANA W='400n' L='400n' M='1'
  M73 net074 net064 net019 inh_bulkn NANA W='400n' L='400n' M='1'
  M62 bg_out net011 inh_lSup inh_bulkn NANA W='400n' L='400n' M='1'
  M65 net013 net011 inh_lSup inh_bulkn NANA W='400n' L='400n' M='1'
  M68 net013 net064 net070 inh_bulkn NANA W='400n' L='400n' M='1'
  M69 net069 net016 inh_lSup inh_bulkn NANA W='400n' L='2.4u' M='4'
  M72 net016 net064 net0127 inh_bulkn NANA W='400n' L='400n' M='1'
  M47 net019 net019 inh_lSup inh_bulkn NANA W='400n' L='400n' M='1'
  M45 net029 net019 net41 inh_bulkn NANA W='400n' L='400n' M='2'
  M61 net011 net064 inh_lSup inh_bulkn NANA W='400n' L='400n' M='1'
  M49 net070 net013 inh_lSup inh_bulkn NANA W='400n' L='2.4u' M='1'
  M48 net0127 net013 inh_lSup inh_bulkn NANA W='400n' L='2.4u' M='1'
  M55 net064 disable inh_lSup inh_bulkn NANA W='400n' L='400n' M='1'
  M70 net011 net064 inh_hsupanalog inh_bulkpanalog PANA W='1.2u' L='400n' M='1'
  M80 net030 net011 net078 inh_bulkpanalog PANA W='400n' L='400n' M='8'
  M60 net028 net077 net025 inh_bulkpanalog PANA W='400n' L='400n' M='1'
  M59 net029 net077 net030 inh_bulkpanalog PANA W='400n' L='400n' M='8'
  M85 net070 net012 net028 inh_bulkpanalog PANA W='400n' L='800n' M='4'
  M58 net0127 net0105 net028 inh_bulkpanalog PANA W='400n' L='800n' M='4'
  M90 net068 net064 inh_hsupanalog inh_bulkpanalog PANA W='400n' L='400n' M='8'
  M75 net077 net064 inh_hsupanalog inh_bulkpanalog PANA W='400n' L='400n' M='8'
  M89 net068 net077 net042 inh_bulkpanalog PANA W='400n' L='400n' M='2'
  M79 net029 net011 net077 inh_bulkpanalog PANA W='400n' L='400n' M='8'
  M84 net078 net064 inh_hsupanalog inh_bulkpanalog PANA W='400n' L='400n' M='8'
  M51 net39 net39 inh_hsupanalog inh_bulkpanalog PANA W='400n' L='1.2u' M='1'
  M81 net076 net076 net39 inh_bulkpanalog PANA W='400n' L='1.2u' M='1'
  M82 net074 net074 net076 inh_bulkpanalog PANA W='400n' L='1.2u' M='1'
  M50 net074 net078 inh_hsupanalog inh_bulkpanalog PANA W='400n' L='400n' M='1'
  M27 net030 net078 inh_hsupanalog inh_bulkpanalog PANA W='400n' L='400n' M='1'
  M71 bg_out net011 net053 inh_bulkpanalog PANA W='400n' L='400n' M='8'
  M56 net025 net078 inh_hsupanalog inh_bulkpanalog PANA W='400n' L='400n' M='1'
  M88 net042 net078 inh_hsupanalog inh_bulkpanalog PANA W='400n' L='400n' M='2'
  M63 net053 net068 inh_hsupanalog inh_bulkpanalog PANA W='400n' L='400n' M='8'
  M86 net039 net068 inh_hsupanalog inh_bulkpanalog PANA W='400n' L='400n' M='4'
  M87 net040 net068 inh_hsupanalog inh_bulkpanalog PANA W='400n' L='400n' M='4'
  M76 net069 net011 net068 inh_bulkpanalog PANA W='400n' L='400n' M='8'
  M83 net064 disable inh_hsupanalog inh_bulkpanalog PANA W='1.2u' L='400n' M='1'
  R248 net050 net0102 R='10K'
  R247 net0102 net0105 R='10K'
  R246 net0102 net038 R='10K'
  R233 net038 net0105 R='10K'
  R245 net0100 net0101 R='10K'
  R244 net0101 net051 R='10K'
  R243 net051 net038 R='10K'
  R242 net0100 net055 R='10K'
  R241 net055 net054 R='10K'
  R278 net053 net0132 R='10K'
  R249 net050 net099 R='10K'
  R277 net0120 net0126 R='10K'
  R276 net0136 net0120 R='10K'
  R275 net0136 net0117 R='10K'
  R263 net0133 net0135 R='10K'
  R262 net0114 net0131 R='10K'
  R261 net0121 net0134 R='10K'
  R260 net0122 net062 R='10K'
  R250 net099 net049 R='10K'
  R255 net053 net045 R='10K'
  R240 net054 net056 R='10K'
  R239 net059 net058 R='10K'
  R254 net046 net047 R='10K'
  R253 net045 net046 R='10K'
  R274 net0126 net0137 R='10K'
  R273 net0132 net0123 R='10K'
  R259 net0129 net0133 R='10K'
  R258 net0128 net0114 R='10K'
  R272 net0117 net041 R='10K'
  R271 net0117 net012 R='10K'
  R270 net0137 net0125 R='10K'
  R269 net0123 net0125 R='10K'
  R268 net041 net012 R='10K'
  R267 net0118 net0129 R='10K'
  R266 net0131 net0135 R='10K'
  R265 net0134 net041 R='10K'
  R238 net058 net057 R='10K'
  R237 net057 net056 R='10K'
  R252 net048 net047 R='10K'
  R251 net049 net048 R='10K'
  R236 net061 net0105 R='10K'
  R11 net41 inh_lSup R='50K'
  R235 net060 net061 R='10K'
  R257 net0128 net0121 R='10K'
  R264 net062 net012 R='10K'
  R0 net0105 net052 R='10K'
  R256 net0118 net0122 R='10K'
  R234 net059 net060 R='10K'
  C2 net069 net0127 C='5f'
  C1 net069 net0127 C='5f'
  Q1 inh_lSup inh_lSup net012 inh_bulkn LATPNP
  Q0 inh_lSup inh_lSup net052 inh_bulkn LATPNP M='8'
  Q3 inh_lSup net012 net039 inh_bulkn LATPNP
  Q2 inh_lSup net052 net040 inh_bulkn LATPNP M='8'
.ENDS
** End of subcircuit definition.

** Subcircuit
** ----------
** Library name: phy_local
** Cell name: phy_diff_buf2x0
** View name: schematic
** Inherited view list: veriloga ahdl spectre schematic av_analog_extracted av_extracted netlist
**
.SUBCKT phy_diff_buf2x0 VDD VSS an ap zn zp inh_bulk_n inh_bulk_p
  MP2 zp an VDD inh_bulk_p PREG W='4.72u' L='120.0n' M='1'
  MP0 zp zn VDD inh_bulk_p PREG W='1.48u' L='120.0n' M='1'
  MP1 zn zp VDD inh_bulk_p PREG W='1.48u' L='120.0n' M='1'
  MP6 zn ap VDD inh_bulk_p PREG W='4.72u' L='120.0n' M='1'
  MN0 zp an VSS inh_bulk_n NREG W='2.96u' L='120.0n' M='1'
  MN6 zn ap VSS inh_bulk_n NREG W='2.96u' L='120.0n' M='1'
.ENDS
** End of subcircuit definition.

** Subcircuit
** ----------
** Library name: ana_lib
** Cell name: DIODE
** View name: schematic
** Inherited view list: veriloga ahdl spectre schematic av_analog_extracted av_extracted netlist
**
.SUBCKT DIODE_X PLUS MINUS inh_bulk_n
  Q1 MINUS MINUS PLUS inh_bulk_n LATPNP
.ENDS
** End of subcircuit definition.

** Subcircuit
** ----------
** Library name: dig_lib
** Cell name: NAND2XP
** View name: schematic
** Inherited view list: veriloga ahdl spectre schematic av_analog_extracted av_extracted netlist
**
.SUBCKT NAND2XP A B Z inh_bulk_n inh_bulk_p inh_hSup inh_lSup
  Mntrans36 net25 B inh_lSup inh_bulk_n NREG W='1.12u' L='120.0n' M='1'
  Mntrans35 Z A net25 inh_bulk_n NREG W='1.12u' L='120.0n' M='1'
  MN1 net022 B inh_lSup inh_bulk_n NREG W='1.12u' L='120.0n' M='1'
  MN0 Z A net022 inh_bulk_n NREG W='1.12u' L='120.0n' M='1'
  Mptrans38 Z B inh_hSup inh_bulk_p PREG W='1.62u' L='120.0n' M='1'
  Mptrans37 Z A inh_hSup inh_bulk_p PREG W='1.62u' L='120.0n' M='1'
  XINSTANCE1 inh_lSup inh_hSup inh_bulk_n DIODE_X AREA='5.4e-12'
.ENDS
** End of subcircuit definition.

** Subcircuit
** ----------
** Library name: phy_local
** Cell name: phy_spare_nand2xp
** View name: schematic
** Inherited view list: veriloga ahdl spectre schematic av_analog_extracted av_extracted netlist
**
.SUBCKT phy_spare_nand2xp VDD VSS a_i b_i nc_dummy_out inh_bulk_n inh_bulk_p
  XI2 net4 net4 nc_dummy_out inh_bulk_n inh_bulk_p VDD VSS NAND2XP
  XI1 a_i b_i net4 inh_bulk_n inh_bulk_p VDD VSS NAND2XP
.ENDS
** End of subcircuit definition.

** Subcircuit
** ----------
** Library name: ana_lib
** Cell name: sub_diode
** View name: schematic
** Inherited view list: veriloga ahdl spectre schematic av_analog_extracted av_extracted netlist
**
.SUBCKT sub_diode MINUS PLUS inh_bulk_n
  Q1 MINUS MINUS PLUS inh_bulk_n LATPNP
.ENDS
** End of subcircuit definition.

** Subcircuit
** ----------
** Library name: dig_lib
** Cell name: TIEZERO
** View name: schematic
** Inherited view list: veriloga ahdl spectre schematic av_analog_extracted av_extracted netlist
**
.SUBCKT TIEZERO Z inh_bulk_n inh_bulk_p inh_hSup inh_lSup
  Mptrans10 netcheck_mark netcheck_mark inh_hSup inh_bulk_p PREG W='860.0n' L='120.0n' M='1'
  Mntrans11 Z netcheck_mark inh_lSup inh_bulk_n NREG W='400n' L='120.0n' M='1'
  XINSTANCE1 inh_hSup inh_lSup inh_bulk_n sub_diode
.ENDS
** End of subcircuit definition.

** Subcircuit
** ----------
** Library name: dig_lib
** Cell name: AND2
** View name: schematic
** Inherited view list: veriloga ahdl spectre schematic av_analog_extracted av_extracted netlist
**
.SUBCKT AND2 A B Z inh_bulk_n inh_bulk_p inh_hSup inh_lSup
  Mptrans25 Z net39 inh_hSup inh_bulk_p PREG W='860.0n' L='120.0n' M='1'
  Mptrans24 net39 A inh_hSup inh_bulk_p PREG W='700n' L='120.0n' M='1'
  Mptrans23 net39 B inh_hSup inh_bulk_p PREG W='700n' L='120.0n' M='1'
  Mntrans22 Z net39 inh_lSup inh_bulk_n NREG W='600n' L='120.0n' M='1'
  Mntrans21 net39 A net32 inh_bulk_n NREG W='700n' L='120.0n' M='1'
  Mntrans20 net32 B inh_lSup inh_bulk_n NREG W='700n' L='120.0n' M='1'
  XINSTANCE1 inh_hSup inh_lSup inh_bulk_n sub_diode
.ENDS
** End of subcircuit definition.

** Subcircuit
** ----------
** Library name: dig_lib
** Cell name: INV1
** View name: schematic
** Inherited view list: veriloga ahdl spectre schematic av_analog_extracted av_extracted netlist
**
.SUBCKT INV1 A Z inh_bulk_n inh_bulk_p inh_hSup inh_lSup
  Mptrans10 Z A inh_hSup inh_bulk_p PREG W='860.0n' L='120.0n' M='1'
  Mntrans11 Z A inh_lSup inh_bulk_n NREG W='600n' L='120.0n' M='1'
  XINSTANCE1 inh_hSup inh_lSup inh_bulk_n sub_diode
.ENDS
** End of subcircuit definition.

** Subcircuit
** ----------
** Library name: dig_lib
** Cell name: AND4
** View name: schematic
** Inherited view list: veriloga ahdl spectre schematic av_analog_extracted av_extracted netlist
**
.SUBCKT AND4 A B C D Z inh_bulk_n inh_bulk_p inh_hSup inh_lSup
  Mptrans84 Z net49 inh_hSup inh_bulk_p PREG W='860.0n' L='120.0n' M='1'
  Mptrans83 net49 D inh_hSup inh_bulk_p PREG W='700n' L='120.0n' M='1'
  Mptrans82 net49 B inh_hSup inh_bulk_p PREG W='700n' L='120.0n' M='1'
  Mptrans81 net49 A inh_hSup inh_bulk_p PREG W='700n' L='120.0n' M='1'
  Mptrans80 net49 C inh_hSup inh_bulk_p PREG W='700n' L='120.0n' M='1'
  Mntrans89 Z net49 inh_lSup inh_bulk_n NREG W='600n' L='120.0n' M='1'
  Mntrans88 net45 D inh_lSup inh_bulk_n NREG W='900n' L='120.0n' M='1'
  Mntrans87 net49 A net39 inh_bulk_n NREG W='900n' L='120.0n' M='1'
  Mntrans86 net39 B net36 inh_bulk_n NREG W='900n' L='120.0n' M='1'
  Mntrans85 net36 C net45 inh_bulk_n NREG W='900n' L='120.0n' M='1'
  XINSTANCE1 inh_lSup inh_hSup inh_bulk_n DIODE_X AREA='6.3e-12'
.ENDS
** End of subcircuit definition.

** Subcircuit
** ----------
** Library name: phy_local
** Cell name: phy_anamux_mux_dec
** View name: schematic
** Inherited view list: veriloga ahdl spectre schematic av_analog_extracted av_extracted netlist
**
.SUBCKT phy_anamux_mux_dec VDD VSS dec_out<10> dec_out<9> dec_out<8> dec_out<7> dec_out<6> dec_out<5> dec_out<4> dec_out<3> dec_out<2> dec_out<1> dec_out<0> en_i sel_i<3> sel_i<2> sel_i<1> sel_i<0> inh_bulk_n inh_bulk_p
  XI50 net072 en_i dec_out<10> inh_bulk_n inh_bulk_p VDD VSS AND2
  XI41 net064 en_i dec_out<1> inh_bulk_n inh_bulk_p VDD VSS AND2
  XI42 net065 en_i dec_out<2> inh_bulk_n inh_bulk_p VDD VSS AND2
  XI43 net066 en_i dec_out<3> inh_bulk_n inh_bulk_p VDD VSS AND2
  XI44 net067 en_i dec_out<4> inh_bulk_n inh_bulk_p VDD VSS AND2
  XI45 net068 en_i dec_out<5> inh_bulk_n inh_bulk_p VDD VSS AND2
  XI49 net071 en_i dec_out<9> inh_bulk_n inh_bulk_p VDD VSS AND2
  XI48 net070 en_i dec_out<8> inh_bulk_n inh_bulk_p VDD VSS AND2
  XI22 net8 en_i dec_out<0> inh_bulk_n inh_bulk_p VDD VSS AND2
  XI47 net073 en_i dec_out<7> inh_bulk_n inh_bulk_p VDD VSS AND2
  XI46 net069 en_i dec_out<6> inh_bulk_n inh_bulk_p VDD VSS AND2
  XI100<3> sel_i<3> sel_n_s<3> inh_bulk_n inh_bulk_p VDD VSS INV1
  XI100<2> sel_i<2> sel_n_s<2> inh_bulk_n inh_bulk_p VDD VSS INV1
  XI100<1> sel_i<1> sel_n_s<1> inh_bulk_n inh_bulk_p VDD VSS INV1
  XI100<0> sel_i<0> sel_n_s<0> inh_bulk_n inh_bulk_p VDD VSS INV1
  XI30 sel_n_s<3> sel_n_s<2> sel_n_s<1> sel_n_s<0> net8 inh_bulk_n inh_bulk_p VDD VSS AND4
  XI37 sel_i<3> sel_n_s<2> sel_n_s<1> sel_n_s<0> net070 inh_bulk_n inh_bulk_p VDD VSS AND4
  XI40 sel_n_s<3> sel_i<2> sel_i<1> sel_i<0> net073 inh_bulk_n inh_bulk_p VDD VSS AND4
  XI39 sel_i<3> sel_n_s<2> sel_i<1> sel_n_s<0> net072 inh_bulk_n inh_bulk_p VDD VSS AND4
  XI38 sel_i<3> sel_n_s<2> sel_n_s<1> sel_i<0> net071 inh_bulk_n inh_bulk_p VDD VSS AND4
  XI34 sel_n_s<3> sel_i<2> sel_n_s<1> sel_n_s<0> net067 inh_bulk_n inh_bulk_p VDD VSS AND4
  XI31 sel_n_s<3> sel_n_s<2> sel_n_s<1> sel_i<0> net064 inh_bulk_n inh_bulk_p VDD VSS AND4
  XI32 sel_n_s<3> sel_n_s<2> sel_i<1> sel_n_s<0> net065 inh_bulk_n inh_bulk_p VDD VSS AND4
  XI33 sel_n_s<3> sel_n_s<2> sel_i<1> sel_i<0> net066 inh_bulk_n inh_bulk_p VDD VSS AND4
  XI36 sel_n_s<3> sel_i<2> sel_i<1> sel_n_s<0> net069 inh_bulk_n inh_bulk_p VDD VSS AND4
  XI35 sel_n_s<3> sel_i<2> sel_n_s<1> sel_i<0> net068 inh_bulk_n inh_bulk_p VDD VSS AND4
.ENDS
** End of subcircuit definition.

** Subcircuit
** ----------
** Library name: phy_local
** Cell name: phy_anamux_sw_half2
** View name: schematic
** Inherited view list: veriloga ahdl spectre schematic av_analog_extracted av_extracted netlist
**
.SUBCKT phy_anamux_sw_half2 VDD VSS en_1v5 sw_in sw_out inh_bulk_n inh_bulk_p
  MP0 sw_out net5 sw_in inh_bulk_p PANA W='7u' L='400n' M='1'
  MP1 net5 en_1v5 VDD inh_bulk_p PANA W='680.0n' L='400n' M='1'
  MN0 sw_out en_1v5 sw_in inh_bulk_n NANA W='3.52u' L='400n' M='1'
  MN1 net5 en_1v5 VSS inh_bulk_n NANA W='680.0n' L='400n' M='1'
.ENDS
** End of subcircuit definition.

** Subcircuit
** ----------
** Library name: phy_local
** Cell name: phy_dc_testout
** View name: schematic
** Inherited view list: veriloga ahdl spectre schematic av_analog_extracted av_extracted netlist
**
.SUBCKT phy_dc_testout VDD VSS ana_test_out dec_o<10> dec_o<9> dec_o<8> dec_o<7> dec_o<6> dec_o<5> dec_o<4> dec_o<3> dec_o<2> dec_o<1> dec_o<0> en_i in_0 in_1 in_2 in_3 in_4 in_5 in_6 in_7 in_8 in_9 in_10 sel_i<3> sel_i<2> sel_i<1> sel_i<0> inh_bulk_n inh_bulk_p
  XI30 VDD VSS dec_o<10> dec_o<9> dec_o<8> dec_o<7> dec_o<6> dec_o<5> dec_o<4> dec_o<3> dec_o<2> dec_o<1> dec_o<0> en_i sel_i<3> sel_i<2> sel_i<1> sel_i<0> inh_bulk_n inh_bulk_p phy_anamux_mux_dec
  MN0 net20 en_i VSS inh_bulk_n NANA W='680.0n' L='400n' M='1'
  MN1 ana_test_out net20 VSS inh_bulk_n NANA W='2u' L='400n' M='1'
  XI19 VDD VSS dec_o<9> in_9 ana_test_out inh_bulk_n inh_bulk_p phy_anamux_sw_half2
  XI18 VDD VSS dec_o<8> in_8 ana_test_out inh_bulk_n inh_bulk_p phy_anamux_sw_half2
  XI16 VDD VSS dec_o<7> in_7 ana_test_out inh_bulk_n inh_bulk_p phy_anamux_sw_half2
  XI44 VDD VSS dec_o<4> in_4 ana_test_out inh_bulk_n inh_bulk_p phy_anamux_sw_half2
  XI40 VDD VSS dec_o<1> in_1 ana_test_out inh_bulk_n inh_bulk_p phy_anamux_sw_half2
  XI31 VDD VSS dec_o<0> in_0 ana_test_out inh_bulk_n inh_bulk_p phy_anamux_sw_half2
  XI41 VDD VSS dec_o<2> in_2 ana_test_out inh_bulk_n inh_bulk_p phy_anamux_sw_half2
  XI42 VDD VSS dec_o<3> in_3 ana_test_out inh_bulk_n inh_bulk_p phy_anamux_sw_half2
  XI14 VDD VSS dec_o<6> in_6 ana_test_out inh_bulk_n inh_bulk_p phy_anamux_sw_half2
  XI45 VDD VSS dec_o<5> in_5 ana_test_out inh_bulk_n inh_bulk_p phy_anamux_sw_half2
  XI20 VDD VSS dec_o<10> in_10 ana_test_out inh_bulk_n inh_bulk_p phy_anamux_sw_half2
  MP1 net20 en_i VDD inh_bulk_p PANA W='680.0n' L='400n' M='1'
.ENDS
** End of subcircuit definition.

** Subcircuit
** ----------
** Library name: dig_lib
** Cell name: NAND2
** View name: schematic
** Inherited view list: veriloga ahdl spectre schematic av_analog_extracted av_extracted netlist
**
.SUBCKT NAND2 A B Z inh_bulk_n inh_bulk_p inh_hSup inh_lSup
  Mptrans38 Z B inh_hSup inh_bulk_p PREG W='860.0n' L='120.0n' M='1'
  Mptrans37 Z A inh_hSup inh_bulk_p PREG W='860.0n' L='120.0n' M='1'
  Mntrans36 net25 B inh_lSup inh_bulk_n NREG W='860.0n' L='120.0n' M='1'
  Mntrans35 Z A net25 inh_bulk_n NREG W='860.0n' L='120.0n' M='1'
  XINSTANCE1 inh_hSup inh_lSup inh_bulk_n sub_diode
.ENDS
** End of subcircuit definition.

** Subcircuit
** ----------
** Library name: phy_local
** Cell name: phy_spare_nand2
** View name: schematic
** Inherited view list: veriloga ahdl spectre schematic av_analog_extracted av_extracted netlist
**
.SUBCKT phy_spare_nand2 VDD VSS a_i b_i nc_dummy_out inh_bulk_n inh_bulk_p
  XI2 net4 net4 nc_dummy_out inh_bulk_n inh_bulk_p VDD VSS NAND2
  XI1 a_i b_i net4 inh_bulk_n inh_bulk_p VDD VSS NAND2
.ENDS
** End of subcircuit definition.

** Subcircuit
** ----------
** Library name: dig_lib
** Cell name: FDN2QNB
** View name: schematic
** Inherited view list: veriloga ahdl spectre schematic av_analog_extracted av_extracted netlist
**
.SUBCKT FDN2QNB CP D QN RN inh_bulk_n inh_bulk_p inh_hSup inh_lSup
  Mntrans65 D1 D inh_lSup inh_bulk_n NREG W='800n' L='120.0n' M='1'
  Mntrans158 SF2 CP2 net206 inh_bulk_n NREG W='400n' L='120.0n' M='1'
  Mntrans128 MB2 MF1 inh_lSup inh_bulk_n NREG W='1.12u' L='120.0n' M='1'
  MN5 MF1 CP2 D1 inh_bulk_n NREG W='500n' L='120.0n' M='1'
  Mntrans156 net206 SB3 inh_lSup inh_bulk_n NREG W='400n' L='120.0n' M='1'
  Mntrans119 CP1 CP inh_lSup inh_bulk_n NREG W='650.0n' L='120.0n' M='1'
  Mntrans155 net0144 RN net200 inh_bulk_n NREG W='500n' L='120.0n' M='1'
  Mntrans154 net0144 CP1 MF1 inh_bulk_n NREG W='850.0n' L='120.0n' M='1'
  Mntrans123 CP2 CP1 inh_lSup inh_bulk_n NREG W='500n' L='120.0n' M='1'
  MN0 net158 RN inh_lSup inh_bulk_n NREG W='400n' L='120.0n' M='1'
  MN1 SB3 SF2 net158 inh_bulk_n NREG W='400n' L='120.0n' M='1'
  Mntrans153 net200 MB2 inh_lSup inh_bulk_n NREG W='500n' L='120.0n' M='1'
  MN3 SF2 CP1 MB2 inh_bulk_n NREG W='1.12u' L='120.0n' M='1'
  MN4 QN SF2 inh_lSup inh_bulk_n NREG W='2.24u' L='120.0n' M='1'
  Mptrans63 D1 D inh_hSup inh_bulk_p PREG W='1.2u' L='120.0n' M='1'
  Mptrans151 net0144 RN inh_hSup inh_bulk_p PREG W='1.62u' L='120.0n' M='1'
  Mptrans118 CP1 CP inh_hSup inh_bulk_p PREG W='900n' L='120.0n' M='1'
  MP4 SF2 CP1 net105 inh_bulk_p PREG W='600n' L='120.0n' M='1'
  MP6 MF1 CP1 D1 inh_bulk_p PREG W='500n' L='120.0n' M='1'
  Mptrans127 MB2 MF1 inh_hSup inh_bulk_p PREG W='1.62u' L='120.0n' M='1'
  Mptrans152 net0144 MB2 inh_hSup inh_bulk_p PREG W='600n' L='120.0n' M='1'
  MP1 SB3 SF2 inh_hSup inh_bulk_p PREG W='400n' L='120.0n' M='1'
  Mptrans122 CP2 CP1 inh_hSup inh_bulk_p PREG W='750.0n' L='120.0n' M='1'
  MP0 SB3 RN inh_hSup inh_bulk_p PREG W='400n' L='120.0n' M='1'
  Mptrans160 net105 SB3 inh_hSup inh_bulk_p PREG W='600n' L='120.0n' M='1'
  Mptrans150 net0144 CP2 MF1 inh_bulk_p PREG W='880.0n' L='120.0n' M='1'
  MP3 SF2 CP2 MB2 inh_bulk_p PREG W='1.12u' L='120.0n' M='1'
  MP5 QN SF2 inh_hSup inh_bulk_p PREG W='3.24u' L='120.0n' M='1'
  XINSTANCE1 inh_lSup inh_hSup inh_bulk_n DIODE_X AREA='2.16e-11'
.ENDS
** End of subcircuit definition.

** Subcircuit
** ----------
** Library name: dig_lib
** Cell name: FD2QV
** View name: schematic
** Inherited view list: veriloga ahdl spectre schematic av_analog_extracted av_extracted netlist
**
.SUBCKT FD2QV CP D Q RN inh_bulk_n inh_bulk_p inh_hSup inh_lSup
  Mntrans65 D1 D inh_lSup inh_bulk_n NREG W='800n' L='120.0n' M='1'
  Mntrans158 SF2 CP1 net206 inh_bulk_n NREG W='400n' L='120.0n' M='1'
  Mntrans128 MB2 MF1 inh_lSup inh_bulk_n NREG W='1.12u' L='120.0n' M='1'
  MN5 MF1 CP1 D1 inh_bulk_n NREG W='500n' L='120.0n' M='1'
  Mntrans156 net206 SB3 inh_lSup inh_bulk_n NREG W='400n' L='120.0n' M='1'
  Mntrans119 CP1 CP inh_lSup inh_bulk_n NREG W='650.0n' L='120.0n' M='1'
  Mntrans155 net188 RN net200 inh_bulk_n NREG W='500n' L='120.0n' M='1'
  Mntrans154 MF1 CP2 net188 inh_bulk_n NREG W='500n' L='120.0n' M='1'
  Mntrans123 CP2 CP1 inh_lSup inh_bulk_n NREG W='500n' L='120.0n' M='1'
  MN0 net158 RN inh_lSup inh_bulk_n NREG W='400n' L='120.0n' M='1'
  MN1 SB3 SF2 net158 inh_bulk_n NREG W='400n' L='120.0n' M='1'
  Mntrans153 net200 MB2 inh_lSup inh_bulk_n NREG W='500n' L='120.0n' M='1'
  MN3 SF2 CP2 MB2 inh_bulk_n NREG W='1.12u' L='120.0n' M='1'
  Mntrans11 Q Q1 inh_lSup inh_bulk_n NREG W='4.48u' L='120.0n' M='1'
  MN4 Q1 SF2 inh_lSup inh_bulk_n NREG W='2.24u' L='120.0n' M='1'
  Mptrans63 D1 D inh_hSup inh_bulk_p PREG W='1.2u' L='120.0n' M='1'
  Mptrans151 net153 RN inh_hSup inh_bulk_p PREG W='1u' L='120.0n' M='1'
  Mptrans118 CP1 CP inh_hSup inh_bulk_p PREG W='900n' L='120.0n' M='1'
  MP4 SF2 CP2 net105 inh_bulk_p PREG W='600n' L='120.0n' M='1'
  MP6 MF1 CP2 D1 inh_bulk_p PREG W='500n' L='120.0n' M='1'
  Mptrans127 MB2 MF1 inh_hSup inh_bulk_p PREG W='1.62u' L='120.0n' M='1'
  Mptrans152 net153 MB2 inh_hSup inh_bulk_p PREG W='600n' L='120.0n' M='1'
  MP1 SB3 SF2 inh_hSup inh_bulk_p PREG W='400n' L='120.0n' M='1'
  Mptrans122 CP2 CP1 inh_hSup inh_bulk_p PREG W='750.0n' L='120.0n' M='1'
  MP0 SB3 RN inh_hSup inh_bulk_p PREG W='400n' L='120.0n' M='1'
  Mptrans160 net105 SB3 inh_hSup inh_bulk_p PREG W='600n' L='120.0n' M='1'
  Mptrans150 MF1 CP1 net153 inh_bulk_p PREG W='880.0n' L='120.0n' M='1'
  MP3 SF2 CP1 MB2 inh_bulk_p PREG W='1.12u' L='120.0n' M='1'
  Mptrans10 Q Q1 inh_hSup inh_bulk_p PREG W='6.48u' L='120.0n' M='1'
  MP5 Q1 SF2 inh_hSup inh_bulk_p PREG W='3.24u' L='120.0n' M='1'
  XINSTANCE1 inh_lSup inh_hSup inh_bulk_n DIODE_X AREA='2.52e-11'
.ENDS
** End of subcircuit definition.

** Subcircuit
** ----------
** Library name: dig_lib
** Cell name: INV4
** View name: schematic
** Inherited view list: veriloga ahdl spectre schematic av_analog_extracted av_extracted netlist
**
.SUBCKT INV4 A Z inh_bulk_n inh_bulk_p inh_hSup inh_lSup
  Mptrans10 Z A inh_hSup inh_bulk_p PREG W='3.24u' L='120.0n' M='1'
  Mntrans11 Z A inh_lSup inh_bulk_n NREG W='2.24u' L='120.0n' M='1'
  XINSTANCE1 inh_hSup inh_lSup inh_bulk_n sub_diode
.ENDS
** End of subcircuit definition.

** Subcircuit
** ----------
** Library name: dig_lib
** Cell name: EXORB
** View name: schematic
** Inherited view list: veriloga ahdl spectre schematic av_analog_extracted av_extracted netlist
**
.SUBCKT EXORB A B Z inh_bulk_n inh_bulk_p inh_hSup inh_lSup
  MN6 net096 B net095 inh_bulk_n NREG W='1.12u' L='120.0n' M='1'
  Mntrans4 net32 A inh_lSup inh_bulk_n NREG W='1.56u' L='120.0n' M='1'
  Mntrans12 net082 B inh_lSup inh_bulk_n NREG W='800n' L='120.0n' M='1'
  MN5 net095 net32 inh_lSup inh_bulk_n NREG W='900n' L='120.0n' M='1'
  MN4 Z net096 inh_lSup inh_bulk_n NREG W='2.24u' L='120.0n' M='1'
  MN7 net096 net082 net32 inh_bulk_n NREG W='1.12u' L='120.0n' M='1'
  MP5 net095 net32 inh_hSup inh_bulk_p PREG W='1.52u' L='120.0n' M='1'
  MP7 net096 B net32 inh_bulk_p PREG W='1.12u' L='120.0n' M='1'
  Mptrans3 net32 A inh_hSup inh_bulk_p PREG W='2.44u' L='120.0n' M='1'
  Mptrans11 net082 B inh_hSup inh_bulk_p PREG W='1.12u' L='120.0n' M='1'
  MP6 net096 net082 net095 inh_bulk_p PREG W='1.12u' L='120.0n' M='1'
  MP4 Z net096 inh_hSup inh_bulk_p PREG W='3.24u' L='120.0n' M='1'
  XINSTANCE1 inh_lSup inh_hSup inh_bulk_n DIODE_X AREA='1.156e-11'
.ENDS
** End of subcircuit definition.

** Subcircuit
** ----------
** Library name: dig_lib
** Cell name: INV3
** View name: schematic
** Inherited view list: veriloga ahdl spectre schematic av_analog_extracted av_extracted netlist
**
.SUBCKT INV3 A Z inh_bulk_n inh_bulk_p inh_hSup inh_lSup
  Mptrans10 Z A inh_hSup inh_bulk_p PREG W='2.44u' L='120.0n' M='1'
  Mntrans11 Z A inh_lSup inh_bulk_n NREG W='1.7u' L='120.0n' M='1'
  XINSTANCE1 inh_hSup inh_lSup inh_bulk_n sub_diode
.ENDS
** End of subcircuit definition.

** Subcircuit
** ----------
** Library name: dig_lib
** Cell name: INV2
** View name: schematic
** Inherited view list: veriloga ahdl spectre schematic av_analog_extracted av_extracted netlist
**
.SUBCKT INV2 A Z inh_bulk_n inh_bulk_p inh_hSup inh_lSup
  Mptrans10 Z A inh_hSup inh_bulk_p PREG W='1.62u' L='120.0n' M='1'
  Mntrans11 Z A inh_lSup inh_bulk_n NREG W='1.12u' L='120.0n' M='1'
  XINSTANCE1 inh_hSup inh_lSup inh_bulk_n sub_diode
.ENDS
** End of subcircuit definition.

** Subcircuit
** ----------
** Library name: phy_local
** Cell name: phy_clk_mux
** View name: schematic
** Inherited view list: veriloga ahdl spectre schematic av_analog_extracted av_extracted netlist
**
.SUBCKT phy_clk_mux VDD VSS clk_n_o clk_p_o clkn_0_i clkn_1_i clkp_0_i clkp_1_i mux_iq_sel inh_bulk_n inh_bulk_p
  XI8 clkp_0_i net18 net26 inh_bulk_n inh_bulk_p VDD VSS NAND2
  XI4 clkn_1_i net20 net23 inh_bulk_n inh_bulk_p VDD VSS NAND2
  XI7 clkn_0_i net18 net24 inh_bulk_n inh_bulk_p VDD VSS NAND2
  XI2 clkp_1_i net20 net25 inh_bulk_n inh_bulk_p VDD VSS NAND2
  XI5 net24 net23 net27 inh_bulk_n inh_bulk_p VDD VSS NAND2XP
  XI3 net26 net25 net28 inh_bulk_n inh_bulk_p VDD VSS NAND2XP
  XI10 mux_iq_sel net18 inh_bulk_n inh_bulk_p VDD VSS INV3
  XI125 VDD VSS net27 net28 clk_n_o clk_p_o inh_bulk_n inh_bulk_p phy_diff_buf2x0
  XI9 net18 net20 inh_bulk_n inh_bulk_p VDD VSS INV2
.ENDS
** End of subcircuit definition.

** Subcircuit
** ----------
** Library name: dig_lib
** Cell name: FD2Q
** View name: schematic
** Inherited view list: veriloga ahdl spectre schematic av_analog_extracted av_extracted netlist
**
.SUBCKT FD2Q CP D Q RN inh_bulk_n inh_bulk_p inh_hSup inh_lSup
  Mntrans65 D1 D inh_lSup inh_bulk_n NREG W='440.0n' L='120.0n' M='1'
  Mntrans158 SF2 CP1 net206 inh_bulk_n NREG W='400n' L='120.0n' M='1'
  Mntrans128 MB2 MF1 inh_lSup inh_bulk_n NREG W='560.0n' L='120.0n' M='1'
  MN5 MF1 CP1 D1 inh_bulk_n NREG W='300n' L='120.0n' M='1'
  Mntrans156 net206 SB3 inh_lSup inh_bulk_n NREG W='400n' L='120.0n' M='1'
  Mntrans119 CP1 CP inh_lSup inh_bulk_n NREG W='500n' L='120.0n' M='1'
  Mntrans155 net188 RN net200 inh_bulk_n NREG W='500n' L='120.0n' M='1'
  Mntrans154 MF1 CP2 net188 inh_bulk_n NREG W='500n' L='120.0n' M='1'
  Mntrans123 CP2 CP1 inh_lSup inh_bulk_n NREG W='420.0n' L='120.0n' M='1'
  MN0 net158 RN inh_lSup inh_bulk_n NREG W='700n' L='120.0n' M='1'
  MN1 SB3 SF2 net158 inh_bulk_n NREG W='700n' L='120.0n' M='1'
  Mntrans153 net200 MB2 inh_lSup inh_bulk_n NREG W='500n' L='120.0n' M='1'
  MN3 SF2 CP2 MB2 inh_bulk_n NREG W='660.0n' L='120.0n' M='1'
  MN4 Q SB3 inh_lSup inh_bulk_n NREG W='600n' L='120.0n' M='1'
  Mptrans63 D1 D inh_hSup inh_bulk_p PREG W='640.0n' L='120.0n' M='1'
  Mptrans151 net153 RN inh_hSup inh_bulk_p PREG W='600n' L='120.0n' M='1'
  Mptrans118 CP1 CP inh_hSup inh_bulk_p PREG W='700n' L='120.0n' M='1'
  MP4 SF2 CP2 net105 inh_bulk_p PREG W='600n' L='120.0n' M='1'
  MP6 MF1 CP2 D1 inh_bulk_p PREG W='300n' L='120.0n' M='1'
  Mptrans127 MB2 MF1 inh_hSup inh_bulk_p PREG W='800n' L='120.0n' M='1'
  Mptrans152 net153 MB2 inh_hSup inh_bulk_p PREG W='600n' L='120.0n' M='1'
  MP1 SB3 SF2 inh_hSup inh_bulk_p PREG W='900n' L='120.0n' M='1'
  Mptrans122 CP2 CP1 inh_hSup inh_bulk_p PREG W='600n' L='120.0n' M='1'
  MP0 SB3 RN inh_hSup inh_bulk_p PREG W='900n' L='120.0n' M='1'
  Mptrans160 net105 SB3 inh_hSup inh_bulk_p PREG W='600n' L='120.0n' M='1'
  Mptrans150 MF1 CP1 net153 inh_bulk_p PREG W='600n' L='120.0n' M='1'
  MP3 SF2 CP1 MB2 inh_bulk_p PREG W='660.0n' L='120.0n' M='1'
  MP5 Q SB3 inh_hSup inh_bulk_p PREG W='860.0n' L='120.0n' M='1'
  XINSTANCE1 inh_lSup inh_hSup inh_bulk_n DIODE_X AREA='1.98e-11'
.ENDS
** End of subcircuit definition.

** Subcircuit
** ----------
** Library name: dig_lib
** Cell name: SYNFD2
** View name: schematic
** Inherited view list: veriloga ahdl spectre schematic av_analog_extracted av_extracted netlist
**
.SUBCKT SYNFD2 CP D Q RN inh_bulk_n inh_bulk_p inh_hSup inh_lSup
  Mntrans65 D1 D inh_lSup inh_bulk_n NREG W='440.0n' L='120.0n' M='1'
  Mntrans158 Y32 CP1 net206 inh_bulk_n NREG W='400n' L='120.0n' M='1'
  Mntrans128 Y22 Y11 inh_lSup inh_bulk_n NREG W='560.0n' L='120.0n' M='1'
  MN5 Y11 CP1 D1 inh_bulk_n NREG W='300n' L='120.0n' M='1'
  Mntrans156 net206 Y43 inh_lSup inh_bulk_n NREG W='400n' L='120.0n' M='1'
  Mntrans119 CP1 CP inh_lSup inh_bulk_n NREG W='500n' L='120.0n' M='1'
  Mntrans155 net188 RN net200 inh_bulk_n NREG W='500n' L='120.0n' M='1'
  Mntrans154 Y11 CP2 net188 inh_bulk_n NREG W='500n' L='120.0n' M='1'
  Mntrans123 CP2 CP1 inh_lSup inh_bulk_n NREG W='420.0n' L='120.0n' M='1'
  MN0 net158 RN inh_lSup inh_bulk_n NREG W='700n' L='120.0n' M='1'
  MN1 Y43 Y32 net158 inh_bulk_n NREG W='700n' L='120.0n' M='1'
  MN19 IQN1 IQ1 inh_lSup inh_bulk_n NREG W='560.0n' L='120.0n' M='1'
  MN18 Y76 CP1_2 net0202 inh_bulk_n NREG W='400n' L='120.0n' M='1'